Version 4
SHEET 1 880 680
WIRE -160 0 -160 -16
WIRE -64 0 -64 -16
WIRE -160 96 -160 80
WIRE -64 96 -64 80
WIRE 288 96 128 96
WIRE 496 96 384 96
WIRE 384 112 384 96
WIRE 384 112 352 112
WIRE 592 112 560 112
WIRE 128 128 128 96
WIRE 288 128 240 128
WIRE 496 128 448 128
WIRE 128 224 128 208
WIRE 240 224 240 128
WIRE 256 224 240 224
WIRE 384 224 384 112
WIRE 384 224 336 224
WIRE 448 224 448 128
WIRE 464 224 448 224
WIRE 592 224 592 112
WIRE 592 224 544 224
WIRE 240 240 240 224
WIRE 448 240 448 224
WIRE 240 336 240 320
WIRE 448 336 448 320
FLAG 240 336 0
FLAG 128 224 0
FLAG -160 96 0
FLAG -64 96 0
FLAG -64 -16 +vcc
FLAG 320 144 +vcc
FLAG 320 80 -vcc
FLAG -160 -16 -vcc
FLAG 448 336 0
FLAG 528 144 +vcc
FLAG 528 80 -vcc
SYMBOL voltage 128 112 R0
WINDOW 123 24 124 Left 2
WINDOW 39 0 0 Left 0
SYMATTR Value2 AC 1
SYMATTR InstName V1
SYMATTR Value SINE(0 0.01 100k)
SYMBOL OpAmps\\TL072 320 176 M180
SYMATTR InstName U1
SYMBOL res 352 208 R90
WINDOW 0 0 56 VBottom 2
WINDOW 3 32 56 VTop 2
SYMATTR InstName R1
SYMATTR Value 19k
SYMBOL res 256 336 R180
WINDOW 0 36 76 Left 2
WINDOW 3 36 40 Left 2
SYMATTR InstName R2
SYMATTR Value 1k
SYMBOL voltage -160 -16 R0
WINDOW 123 0 0 Left 0
WINDOW 39 0 0 Left 0
SYMATTR InstName V2
SYMATTR Value -8
SYMBOL voltage -64 -16 R0
WINDOW 123 0 0 Left 0
WINDOW 39 0 0 Left 0
SYMATTR InstName V3
SYMATTR Value 8
SYMBOL OpAmps\\TL072 528 176 M180
SYMATTR InstName U2
SYMBOL res 560 208 R90
WINDOW 0 0 56 VBottom 2
WINDOW 3 32 56 VTop 2
SYMATTR InstName R3
SYMATTR Value 9k
SYMBOL res 464 336 R180
WINDOW 0 36 76 Left 2
WINDOW 3 36 40 Left 2
SYMATTR InstName R4
SYMATTR Value 1k
TEXT -192 360 Left 2 !.ac dec 20000 1k 1meg
