Version 4
SHEET 1 880 680
WIRE 368 96 -112 96
WIRE 576 128 512 128
WIRE -112 144 -112 96
WIRE -112 288 -112 224
FLAG 576 128 s
FLAG -112 288 0
SYMBOL SpecialFunctions\\modulate 368 96 R0
WINDOW 3 -21 132 Left 2
SYMATTR Value mark=60k  space=50k
SYMATTR InstName A1
SYMBOL voltage -112 128 R0
WINDOW 123 0 0 Left 0
WINDOW 39 0 0 Left 0
SYMATTR InstName V1
SYMATTR Value SINE(0 0.8 2k)
TEXT -182 312 Left 2 !.tran 10ms
