Version 4
SHEET 1 880 680
WIRE 208 128 208 96
WIRE -384 176 -384 128
WIRE -256 176 -256 128
WIRE 208 224 208 192
WIRE -304 256 -384 256
WIRE -256 256 -304 256
WIRE -304 288 -304 256
FLAG -304 288 0
FLAG -384 128 +vcc
FLAG 208 96 +vcc
FLAG -256 128 -vcc
FLAG 208 224 -vcc
SYMBOL OpAmps\\LT1078 208 96 R0
SYMATTR InstName U1
SYMBOL voltage -384 160 R0
SYMATTR InstName V1
SYMBOL voltage -256 160 R0
SYMATTR InstName V2
