Version 4
SHEET 1 1572 724
WIRE 768 -32 608 -32
WIRE 704 48 704 32
WIRE 608 64 608 -32
WIRE 672 64 608 64
WIRE 768 80 768 -32
WIRE 768 80 736 80
WIRE 848 80 768 80
WIRE 1088 80 928 80
WIRE 240 96 144 96
WIRE 480 96 320 96
WIRE 672 96 480 96
WIRE 1440 112 1440 96
WIRE -512 128 -512 96
WIRE -352 128 -352 96
WIRE 704 128 704 112
WIRE 1088 128 1088 80
WIRE 1088 128 1008 128
WIRE 1184 128 1088 128
WIRE 1408 128 1184 128
WIRE 144 144 144 96
WIRE 480 144 480 96
WIRE 480 144 400 144
WIRE 576 144 480 144
WIRE 1504 144 1472 144
WIRE 1408 160 1344 160
WIRE 1344 176 1344 160
WIRE 1440 192 1440 176
WIRE 1088 208 1008 208
WIRE 1184 208 1184 192
WIRE 1184 208 1088 208
WIRE 480 224 400 224
WIRE 576 224 576 208
WIRE 576 224 480 224
WIRE -512 240 -512 208
WIRE -352 240 -352 208
WIRE 1088 240 1088 208
WIRE 480 256 480 224
WIRE 1344 288 1344 256
WIRE 1376 288 1344 288
WIRE 1504 288 1504 144
WIRE 1504 288 1456 288
WIRE 1344 336 1344 288
FLAG 144 224 0
FLAG 480 256 0
FLAG 144 96 vin
FLAG 480 96 vout
FLAG -352 96 vcc
FLAG -352 240 0
FLAG -512 240 0
FLAG -512 96 -vcc
FLAG 1088 240 0
FLAG 1088 80 vout2
FLAG 704 32 vcc
FLAG 704 128 -vcc
FLAG 1440 192 vcc
FLAG 1440 96 -vcc
FLAG 1344 336 0
SYMBOL voltage 144 128 R0
WINDOW 123 24 124 Left 2
WINDOW 39 0 0 Left 0
SYMATTR Value2 AC 0.1
SYMATTR InstName V1
SYMATTR Value SINE(0 0.1 100k)
SYMBOL res 336 80 R90
WINDOW 0 0 56 VBottom 2
WINDOW 3 32 56 VTop 2
SYMATTR InstName R1
SYMATTR Value 11k
SYMBOL res 416 240 R180
WINDOW 0 36 76 Left 2
WINDOW 3 36 40 Left 2
SYMATTR InstName R2
SYMATTR Value 10k
SYMBOL ind 464 128 R0
SYMATTR InstName L1
SYMATTR Value 0.5m
SYMBOL cap 560 144 R0
SYMATTR InstName C1
SYMATTR Value 4.4n
SYMBOL voltage -352 112 R0
WINDOW 123 0 0 Left 0
WINDOW 39 0 0 Left 0
SYMATTR InstName V2
SYMATTR Value 8
SYMBOL voltage -512 112 R0
WINDOW 123 0 0 Left 0
WINDOW 39 0 0 Left 0
SYMATTR InstName V4
SYMATTR Value -8
SYMBOL res 944 64 R90
WINDOW 0 0 56 VBottom 2
WINDOW 3 32 56 VTop 2
SYMATTR InstName R3
SYMATTR Value 11k
SYMBOL res 1024 224 R180
WINDOW 0 36 76 Left 2
WINDOW 3 36 40 Left 2
SYMATTR InstName R4
SYMATTR Value 10k
SYMBOL ind 1072 112 R0
SYMATTR InstName L3
SYMATTR Value 0.5m
SYMBOL cap 1168 128 R0
SYMATTR InstName C3
SYMATTR Value 5.6n
SYMBOL OpAmps\\TL072 704 16 R0
SYMATTR InstName U1
SYMBOL OpAmps\\TL072 1440 208 M180
SYMATTR InstName U2
SYMBOL res 1328 160 R0
SYMATTR InstName R5
SYMATTR Value 10k
SYMBOL res 1472 272 R90
WINDOW 0 0 56 VBottom 2
WINDOW 3 32 56 VTop 2
SYMATTR InstName R6
SYMATTR Value 90k
TEXT -536 328 Left 2 !;tran 0 10.1ms 10ms
TEXT -544 664 Left 2 !.ac dec 10000 10k 500k
