Version 4
SHEET 1 2660 2116
WIRE 1856 0 1712 0
WIRE 2048 0 1920 0
WIRE 736 80 736 64
WIRE 848 80 800 80
WIRE 1088 80 928 80
WIRE 240 96 144 96
WIRE 480 96 320 96
WIRE 704 96 480 96
WIRE 800 112 800 80
WIRE 800 112 768 112
WIRE 1456 112 1456 96
WIRE 1984 112 1984 96
WIRE -512 128 -512 96
WIRE -352 128 -352 96
WIRE 704 128 640 128
WIRE 1088 128 1088 80
WIRE 1088 128 1008 128
WIRE 1184 128 1088 128
WIRE 1424 128 1184 128
WIRE 1616 128 1520 128
WIRE 1712 128 1712 0
WIRE 1712 128 1696 128
WIRE 1840 128 1792 128
WIRE 1952 128 1840 128
WIRE 480 144 480 96
WIRE 480 144 400 144
WIRE 576 144 480 144
WIRE 1520 144 1520 128
WIRE 1520 144 1488 144
WIRE 2048 144 2048 0
WIRE 2048 144 2016 144
WIRE 2096 144 2048 144
WIRE 736 160 736 144
WIRE 1424 160 1392 160
WIRE 1840 160 1840 128
WIRE 1952 160 1920 160
WIRE 1456 192 1456 176
WIRE 1984 192 1984 176
WIRE 144 208 144 96
WIRE 1088 208 1008 208
WIRE 1184 208 1184 192
WIRE 1184 208 1088 208
WIRE 480 224 400 224
WIRE 576 224 576 208
WIRE 576 224 480 224
WIRE -512 240 -512 208
WIRE -352 240 -352 208
WIRE 1088 240 1088 208
WIRE 480 256 480 224
WIRE 640 256 640 128
WIRE 672 256 640 256
WIRE 800 256 800 112
WIRE 800 256 752 256
WIRE 1920 272 1920 160
WIRE 2048 272 2048 144
WIRE 2048 272 1920 272
WIRE 640 288 640 256
WIRE 1392 288 1392 160
WIRE 1424 288 1392 288
WIRE 1520 288 1520 144
WIRE 1520 288 1504 288
WIRE 1392 320 1392 288
WIRE 640 384 640 368
WIRE 1392 416 1392 400
WIRE 1872 592 1872 576
WIRE 816 608 480 608
WIRE 1552 608 1360 608
WIRE 1648 608 1616 608
WIRE 1840 608 1648 608
WIRE 1936 624 1904 624
WIRE 1840 640 1776 640
WIRE 1872 672 1872 656
WIRE 480 704 480 688
WIRE 736 704 480 704
WIRE 816 704 736 704
WIRE 1648 720 1648 688
WIRE 1776 768 1776 640
WIRE 1936 768 1936 624
WIRE 1936 768 1776 768
WIRE 1104 864 1008 864
WIRE 1152 864 1152 816
WIRE 1152 864 1104 864
WIRE 1008 880 1008 864
WIRE 1104 912 1104 864
WIRE 1008 960 1008 944
WIRE 1008 960 896 960
WIRE 1008 976 1008 960
WIRE 896 1008 896 960
WIRE 1008 1088 1008 1040
WIRE 1104 1088 1104 992
WIRE 1104 1088 1008 1088
WIRE 1152 1088 1104 1088
WIRE 1232 1088 1232 816
WIRE 1232 1088 1152 1088
FLAG 144 288 0
FLAG 480 256 0
FLAG 480 96 vout
FLAG -352 96 vcc
FLAG -352 240 0
FLAG -512 240 0
FLAG -512 96 -vcc
FLAG 1088 240 0
FLAG 1088 80 vout2
FLAG 896 1088 0
FLAG 944 512 vcc
FLAG 944 816 0
FLAG 1648 720 0
FLAG 1872 672 vcc
FLAG 1872 576 -vcc
FLAG 1152 1152 0
FLAG 736 768 0
FLAG 1936 624 vin
FLAG 144 64 vin
FLAG 736 160 vcc
FLAG 736 64 -vcc
FLAG 1984 192 vcc
FLAG 1984 96 -vcc
FLAG 1840 224 0
FLAG 1456 192 vcc
FLAG 1456 96 -vcc
FLAG 640 384 0
FLAG 1392 416 0
SYMBOL voltage 144 192 R0
WINDOW 123 24 124 Left 2
WINDOW 39 0 0 Left 0
SYMATTR Value2 AC 0.1
SYMATTR InstName V1
SYMATTR Value SINE(0 0.1 100k)
SYMBOL res 336 80 R90
WINDOW 0 0 56 VBottom 2
WINDOW 3 32 56 VTop 2
SYMATTR InstName R1
SYMATTR Value 11k
SYMBOL res 416 240 R180
WINDOW 0 36 76 Left 2
WINDOW 3 36 40 Left 2
SYMATTR InstName R2
SYMATTR Value 10k
SYMBOL ind 464 128 R0
SYMATTR InstName L1
SYMATTR Value 0.5m
SYMBOL cap 560 144 R0
SYMATTR InstName C1
SYMATTR Value 4.4n
SYMBOL voltage -352 112 R0
WINDOW 123 0 0 Left 0
WINDOW 39 0 0 Left 0
SYMATTR InstName V2
SYMATTR Value 8
SYMBOL voltage -512 112 R0
WINDOW 123 0 0 Left 0
WINDOW 39 0 0 Left 0
SYMATTR InstName V4
SYMATTR Value -8
SYMBOL res 944 64 R90
WINDOW 0 0 56 VBottom 2
WINDOW 3 32 56 VTop 2
SYMATTR InstName R3
SYMATTR Value 11k
SYMBOL res 1024 224 R180
WINDOW 0 36 76 Left 2
WINDOW 3 36 40 Left 2
SYMATTR InstName R4
SYMATTR Value 10k
SYMBOL ind 1072 112 R0
SYMATTR InstName L3
SYMATTR Value 0.5m
SYMBOL cap 1168 128 R0
SYMATTR InstName C3
SYMATTR Value 5.6n
SYMBOL voltage 896 992 R0
WINDOW 123 24 124 Left 2
WINDOW 39 0 0 Left 0
WINDOW 3 -226 93 Left 2
SYMATTR Value SINE(0 0.1 1meg)
SYMATTR InstName V3
SYMBOL voltage 480 592 R0
WINDOW 123 24 124 Left 2
WINDOW 39 0 0 Left 0
WINDOW 3 -213 99 Left 2
SYMATTR Value SINE(0 1 0.9meg)
SYMATTR InstName V5
SYMBOL sa612 1056 656 R0
SYMATTR InstName X1
SYMBOL cap 1136 1088 R0
SYMATTR InstName C5
SYMATTR Value 100n
SYMBOL cap 1616 592 R90
WINDOW 0 0 32 VBottom 2
WINDOW 3 32 32 VTop 2
SYMATTR InstName C6
SYMATTR Value 1µ
SYMBOL res 1632 592 R0
SYMATTR InstName R7
SYMATTR Value 10k
SYMBOL OpAmps\\TL072 1872 688 M180
SYMATTR InstName U3
SYMBOL cap 992 880 R0
SYMATTR InstName C2
SYMATTR Value 47p
SYMBOL cap 992 976 R0
SYMATTR InstName C4
SYMATTR Value 220p
SYMBOL ind 1088 896 R0
SYMATTR InstName L2
SYMATTR Value 0.250µ
SYMBOL cap 720 704 R0
SYMATTR InstName C7
SYMATTR Value 100n
SYMBOL OpAmps\\TL072 736 176 M180
SYMATTR InstName U1
SYMBOL OpAmps\\TL072 1984 208 M180
SYMATTR InstName U5
SYMBOL res 1712 112 R90
WINDOW 0 0 56 VBottom 2
WINDOW 3 32 56 VTop 2
SYMATTR InstName R16
SYMATTR Value 13k
SYMBOL res 1808 112 R90
WINDOW 0 0 56 VBottom 2
WINDOW 3 32 56 VTop 2
SYMATTR InstName R17
SYMATTR Value 13k
SYMBOL cap 1824 160 R0
SYMATTR InstName C8
SYMATTR Value 100p
SYMBOL cap 1920 -16 R90
WINDOW 0 0 32 VBottom 2
WINDOW 3 32 32 VTop 2
SYMATTR InstName C9
SYMATTR Value 100p
SYMBOL OpAmps\\TL072 1456 208 M180
SYMATTR InstName U2
SYMBOL res 624 272 R0
SYMATTR InstName R10
SYMATTR Value 1k
SYMBOL res 768 240 R90
WINDOW 0 0 56 VBottom 2
WINDOW 3 32 56 VTop 2
SYMATTR InstName R11
SYMATTR Value 10k
SYMBOL res 1376 304 R0
SYMATTR InstName R5
SYMATTR Value 1k
SYMBOL res 1520 272 R90
WINDOW 0 0 56 VBottom 2
WINDOW 3 32 56 VTop 2
SYMATTR InstName R6
SYMATTR Value 10k
TEXT -536 328 Left 2 !.tran 0 1000us 200us
TEXT -544 376 Left 2 !;ac dec 10000 10k 500k
TEXT 176 -112 Left 2 ;Filtre intermédiaire
TEXT 168 456 Left 2 ;Mixeur
TEXT 424 600 Left 2 ;OL
TEXT 848 992 Left 2 ;RF
TEXT 1792 -112 Left 2 ;Sallen Key LPF\nfc = 120 kHz
