Version 4
SHEET 1 1472 724
WIRE 144 96 48 96
WIRE 384 96 224 96
WIRE 1344 96 1184 96
WIRE -512 128 -512 96
WIRE -352 128 -352 96
WIRE 48 144 48 96
WIRE 384 144 384 96
WIRE 384 144 336 144
WIRE 448 144 384 144
WIRE 1344 144 1344 96
WIRE 1344 144 1296 144
WIRE 1408 144 1344 144
WIRE 384 224 336 224
WIRE 448 224 448 208
WIRE 448 224 384 224
WIRE 1344 224 1296 224
WIRE 1408 224 1408 208
WIRE 1408 224 1344 224
WIRE -512 240 -512 208
WIRE -352 240 -352 208
WIRE 384 256 384 224
WIRE 1344 256 1344 224
WIRE 144 480 48 480
WIRE 384 480 224 480
WIRE 48 528 48 480
WIRE 384 528 384 480
WIRE 384 528 336 528
WIRE 448 528 384 528
WIRE 384 608 336 608
WIRE 448 608 448 592
WIRE 448 608 384 608
WIRE 384 640 384 608
FLAG 48 224 0
FLAG 384 256 0
FLAG 48 96 vin
FLAG 384 96 vout
FLAG -352 96 vcc
FLAG -352 240 0
FLAG -512 240 0
FLAG -512 96 -vcc
FLAG 48 608 0
FLAG 384 640 0
FLAG 48 480 vin2
FLAG 384 480 vout2
FLAG 1344 256 0
FLAG 1344 96 vout2
SYMBOL voltage 48 128 R0
WINDOW 123 24 124 Left 2
WINDOW 39 0 0 Left 0
SYMATTR Value2 AC 1
SYMATTR InstName V1
SYMATTR Value SINE(0 2 100k)
SYMBOL res 240 80 R90
WINDOW 0 0 56 VBottom 2
WINDOW 3 32 56 VTop 2
SYMATTR InstName R1
SYMATTR Value 100k
SYMBOL res 352 240 R180
WINDOW 0 36 76 Left 2
WINDOW 3 36 40 Left 2
SYMATTR InstName R2
SYMATTR Value 10k
SYMBOL ind 368 128 R0
SYMATTR InstName L1
SYMATTR Value 0.5m
SYMBOL cap 432 144 R0
SYMATTR InstName C1
SYMATTR Value 4.7n
SYMBOL voltage -352 112 R0
WINDOW 123 0 0 Left 0
WINDOW 39 0 0 Left 0
SYMATTR InstName V2
SYMATTR Value 8
SYMBOL voltage -512 112 R0
WINDOW 123 0 0 Left 0
WINDOW 39 0 0 Left 0
SYMATTR InstName V4
SYMATTR Value -8
SYMBOL voltage 48 512 R0
WINDOW 123 24 124 Left 2
WINDOW 39 0 0 Left 0
SYMATTR Value2 AC 1
SYMATTR InstName V3
SYMATTR Value SINE(0 2 100k)
SYMBOL res 240 464 R90
WINDOW 0 0 56 VBottom 2
WINDOW 3 32 56 VTop 2
SYMATTR InstName R5
SYMATTR Value 10k
SYMBOL res 352 624 R180
WINDOW 0 36 76 Left 2
WINDOW 3 36 40 Left 2
SYMATTR InstName R6
SYMATTR Value 10k
SYMBOL ind 368 512 R0
SYMATTR InstName L2
SYMATTR Value 0.5m
SYMBOL cap 432 528 R0
SYMATTR InstName C2
SYMATTR Value 4.7n
SYMBOL res 1200 80 R90
WINDOW 0 0 56 VBottom 2
WINDOW 3 32 56 VTop 2
SYMATTR InstName R3
SYMATTR Value 10k
SYMBOL res 1312 240 R180
WINDOW 0 36 76 Left 2
WINDOW 3 36 40 Left 2
SYMATTR InstName R4
SYMATTR Value 10k
SYMBOL ind 1328 128 R0
SYMATTR InstName L3
SYMATTR Value 0.5m
SYMBOL cap 1392 144 R0
SYMATTR InstName C3
SYMATTR Value 4.7n
TEXT -536 328 Left 2 !;tran 0 10.1ms 10ms
TEXT -546 664 Left 2 !.ac dec 10000 10k 500k
