Version 4
SHEET 1 880 680
WIRE -784 64 -816 64
WIRE -816 80 -816 64
WIRE -784 128 -784 64
WIRE 208 128 208 96
WIRE 272 128 272 112
WIRE 320 128 272 128
WIRE -592 144 -752 144
WIRE -544 144 -592 144
WIRE -384 144 -384 128
WIRE -384 144 -464 144
WIRE 176 144 128 144
WIRE -880 160 -880 96
WIRE -816 160 -880 160
WIRE -720 176 -752 176
WIRE -592 176 -592 144
WIRE -384 176 -384 144
WIRE -224 176 -224 128
WIRE 16 176 -64 176
WIRE 128 176 96 176
WIRE 176 176 128 176
WIRE 208 224 208 192
WIRE 272 224 272 192
WIRE -784 256 -784 192
WIRE -592 272 -592 256
WIRE -880 304 -880 160
WIRE -720 304 -720 176
WIRE -720 304 -880 304
WIRE -384 304 -384 256
WIRE -224 304 -224 256
WIRE -64 304 -64 256
WIRE 128 320 128 176
WIRE 160 320 128 320
WIRE 320 320 320 128
WIRE 320 320 240 320
FLAG -384 304 0
FLAG -384 128 +vcc
FLAG 208 96 +vcc
FLAG -592 272 0
FLAG 208 224 0
FLAG 128 144 Vgnd
FLAG -64 304 Vgnd
FLAG -880 96 Vgnd
FLAG -784 256 +vcc
FLAG -816 80 0
FLAG -224 304 0
FLAG -224 128 +vcc_5
FLAG 272 32 +vcc_5
FLAG 272 224 0
SYMBOL voltage -384 160 R0
WINDOW 123 0 0 Left 0
WINDOW 39 0 0 Left 0
SYMATTR InstName V1
SYMATTR Value 8
SYMBOL res 256 304 R90
WINDOW 0 0 56 VBottom 2
WINDOW 3 32 56 VTop 2
SYMATTR InstName R1
SYMATTR Value 100k
SYMBOL res 112 160 R90
WINDOW 0 0 56 VBottom 2
WINDOW 3 32 56 VTop 2
SYMATTR InstName R2
SYMATTR Value 10k
SYMBOL res -448 128 R90
WINDOW 0 0 56 VBottom 2
WINDOW 3 32 56 VTop 2
SYMATTR InstName R3
SYMATTR Value 10k
SYMBOL res -576 272 R180
WINDOW 0 36 76 Left 2
WINDOW 3 36 40 Left 2
SYMATTR InstName R4
SYMATTR Value 10k
SYMBOL voltage -64 160 R0
WINDOW 123 0 0 Left 0
WINDOW 39 0 0 Left 0
SYMATTR InstName V2
SYMATTR Value SINE(0 2 100k)
SYMBOL OpAmps\\OP747 -784 224 R180
SYMATTR InstName U1
SYMBOL voltage -224 160 R0
WINDOW 123 0 0 Left 0
WINDOW 39 0 0 Left 0
SYMATTR InstName V3
SYMATTR Value 5
SYMBOL res 256 16 R0
SYMATTR InstName R5
SYMATTR Value 2k
SYMBOL OpAmps\\LM311 208 160 R0
SYMATTR InstName U2
TEXT -656 416 Left 2 !.tran 0 10.1ms 10ms
