Version 4
SHEET 1 880 680
WIRE -480 80 -512 80
WIRE -480 96 -480 80
WIRE 208 128 208 96
WIRE 272 128 272 112
WIRE 368 128 272 128
WIRE -512 144 -512 80
WIRE 176 144 -128 144
WIRE -912 160 -912 144
WIRE -832 160 -912 160
WIRE -704 160 -752 160
WIRE -544 160 -704 160
WIRE -416 176 -416 112
WIRE -416 176 -480 176
WIRE 176 176 128 176
WIRE -1072 192 -1072 144
WIRE -912 192 -912 160
WIRE -704 192 -704 160
WIRE -544 192 -576 192
WIRE 208 224 208 192
WIRE 272 224 272 192
WIRE -512 272 -512 208
WIRE -128 272 -128 224
WIRE -704 288 -704 272
WIRE -1072 320 -1072 272
WIRE -912 320 -912 272
WIRE -576 320 -576 192
WIRE -416 320 -416 176
WIRE -416 320 -576 320
WIRE -16 320 -16 272
WIRE 16 320 -16 320
WIRE 128 320 128 176
WIRE 128 320 96 320
WIRE 192 320 128 320
WIRE 368 320 368 128
WIRE 368 320 272 320
WIRE 128 432 128 400
FLAG -912 320 0
FLAG -912 144 +vcc_8
FLAG 208 96 +vcc_8
FLAG -704 288 0
FLAG 208 224 0
FLAG -128 272 Vgnd
FLAG -416 112 Vgnd
FLAG -512 272 +vcc_8
FLAG -480 96 0
FLAG -1072 320 0
FLAG -1072 144 +vcc_5
FLAG 272 32 +vcc_5
FLAG 272 224 0
FLAG 128 432 0
FLAG -16 272 +vcc_5
SYMBOL voltage -912 176 M0
WINDOW 123 0 0 Left 0
WINDOW 39 0 0 Left 0
SYMATTR InstName V1
SYMATTR Value 8
SYMBOL res 288 304 R90
WINDOW 0 0 56 VBottom 2
WINDOW 3 32 56 VTop 2
SYMATTR InstName R1
SYMATTR Value 15k
SYMBOL res -848 144 M90
WINDOW 0 0 56 VBottom 2
WINDOW 3 32 56 VTop 2
SYMATTR InstName R3
SYMATTR Value 10k
SYMBOL res -720 288 M180
WINDOW 0 36 76 Left 2
WINDOW 3 36 40 Left 2
SYMATTR InstName R4
SYMATTR Value 10k
SYMBOL voltage -128 128 R0
WINDOW 123 0 0 Left 0
WINDOW 39 0 0 Left 0
WINDOW 3 -204 101 Left 2
SYMATTR Value SINE(0 0.5 100k)
SYMATTR InstName V2
SYMBOL OpAmps\\OP747 -512 240 M180
SYMATTR InstName U1
SYMBOL voltage -1072 176 R0
WINDOW 123 0 0 Left 0
WINDOW 39 0 0 Left 0
SYMATTR InstName V3
SYMATTR Value 5
SYMBOL res 256 16 R0
SYMATTR InstName R5
SYMATTR Value 2k
SYMBOL OpAmps\\LM311 208 160 R0
SYMATTR InstName U2
SYMBOL res 112 304 R0
SYMATTR InstName R6
SYMATTR Value 10k
SYMBOL res 112 304 R90
WINDOW 0 0 56 VBottom 2
WINDOW 3 32 56 VTop 2
SYMATTR InstName R2
SYMATTR Value 2k
TEXT -656 416 Left 2 !.tran 0 10.1ms 10ms
TEXT 400 56 Left 2 ;+Vth = 4.25 V\n- Vth = 3.75 V
TEXT -168 96 Left 2 ;Vpp >= 1 V
TEXT -80 -112 Left 2 ;Inverting Schmitt Trigger with Vref
